STAAD SPACE
START JOB INFORMATION
ENGINEER DATE 30-AUG-26
JOB NAME G+0 STEEL INDUSTRIAL WAREHOUSE
JOB COMMENT 30M SPAN X 48M LENGTH - 8M EAVE - 10.4M RIDGE
END JOB INFORMATION
INPUT WIDTH 79
UNIT METER KN

JOINT COORDINATES
1 0 8.000 0
2 5 8.800 0
3 10 9.600 0
4 15 10.400 0
5 20 9.600 0
6 25 8.800 0
7 30 8.000 0
8 0 8.000 6
9 5 8.800 6
10 10 9.600 6
11 15 10.400 6
12 20 9.600 6
13 25 8.800 6
14 30 8.000 6
15 0 8.000 12
16 5 8.800 12
17 10 9.600 12
18 15 10.400 12
19 20 9.600 12
20 25 8.800 12
# ... 61 like lines cut

MEMBER INCIDENCES
1 64 1
2 65 7
3 1 2
4 2 3
5 3 4
6 4 5
7 5 6
8 6 7
9 66 8
10 67 14
11 8 9
12 9 10
13 10 11
14 11 12
15 12 13
16 13 14
17 68 15
18 69 21
19 15 16
20 16 17
# ... 140 like lines cut

START USER TABLE
TABLE 1
UNIT METER KN
WIDE FLANGE
IWB700C
0.027104 0.7 0.016 0.3 0.028 0.002253870379 0.000126219819 0.000005269675 0.0112 0.011088
END

MEMBER PROPERTY INDIAN
1 TO 72 UPTABLE 1 IWB700C
73 TO 127 TABLE ST ISWB600
128 TO 136 UPTABLE 1 IWB700C
137 TO 160 TABLE ST ISWB600
DEFINE MATERIAL START
ISOTROPIC STEEL
E 2.05E+008
POISSON 0.30
DENSITY 76.819
ALPHA 1.20E-005
DAMP 0.03
TYPE STEEL
STRENGTH FY 250000 FU 410000
END DEFINE MATERIAL

CONSTANTS
MATERIAL STEEL ALL

SUPPORTS
64 TO 81 FIXED

LOAD 1 LOADTYPE DEAD TITLE DEAD LOAD
SELFWEIGHT Y -1.0
MEMBER LOAD
73 UNI GY -1.00
74 UNI GY -1.00
75 UNI GY -1.00
76 UNI GY -1.00
77 UNI GY -1.00
78 UNI GY -1.00
79 UNI GY -1.00
80 UNI GY -1.00
81 UNI GY -1.00
82 UNI GY -1.00
83 UNI GY -1.00
84 UNI GY -1.00
85 UNI GY -1.00
86 UNI GY -1.00
87 UNI GY -1.00
88 UNI GY -1.00
89 UNI GY -1.00
90 UNI GY -1.00
91 UNI GY -1.00
92 UNI GY -1.00
# ... 20 like lines cut

LOAD 2 LOADTYPE LIVE TITLE ROOF LIVE LOAD
MEMBER LOAD
73 UNI GY -0.75
74 UNI GY -0.75
75 UNI GY -0.75
76 UNI GY -0.75
77 UNI GY -0.75
78 UNI GY -0.75
79 UNI GY -0.75
80 UNI GY -0.75
81 UNI GY -0.75
82 UNI GY -0.75
83 UNI GY -0.75
84 UNI GY -0.75
85 UNI GY -0.75
86 UNI GY -0.75
87 UNI GY -0.75
88 UNI GY -0.75
89 UNI GY -0.75
90 UNI GY -0.75
91 UNI GY -0.75
92 UNI GY -0.75
# ... 20 like lines cut

LOAD 3 LOADTYPE WIND TITLE WIND +X
JOINT LOAD
14 FX 36.0
8 FX 18.0
21 FX 36.0
15 FX 18.0
28 FX 36.0
22 FX 18.0
35 FX 36.0
29 FX 18.0
42 FX 36.0
36 FX 18.0
49 FX 36.0
43 FX 18.0
56 FX 36.0
50 FX 18.0
63 FX 36.0
57 FX 18.0

LOAD 4 LOADTYPE WIND TITLE WIND -X
JOINT LOAD
8 FX -36.0
14 FX -18.0
15 FX -36.0
21 FX -18.0
22 FX -36.0
28 FX -18.0
29 FX -36.0
35 FX -18.0
36 FX -36.0
42 FX -18.0
43 FX -36.0
49 FX -18.0
50 FX -36.0
56 FX -18.0
57 FX -36.0
63 FX -18.0

LOAD 101 LOADTYPE NONE TITLE ULS 1.5(DL+LL)
REPEAT LOAD
1 1.5 2 1.5

LOAD 102 LOADTYPE NONE TITLE ULS 1.5(DL+W+X)
REPEAT LOAD
1 1.5 3 1.5

LOAD 103 LOADTYPE NONE TITLE ULS 1.5(DL-W-X)
REPEAT LOAD
1 1.5 4 1.5

LOAD 104 LOADTYPE NONE TITLE ULS 1.2(DL+LL+W+X)
REPEAT LOAD
1 1.2 2 1.2 3 1.2

LOAD 105 LOADTYPE NONE TITLE ULS 1.2(DL+LL-W-X)
REPEAT LOAD
1 1.2 2 1.2 4 1.2

LOAD 106 LOADTYPE NONE TITLE ULS 0.9DL+1.5W+X
REPEAT LOAD
1 0.9 3 1.5

LOAD 107 LOADTYPE NONE TITLE ULS 0.9DL-1.5W-X
REPEAT LOAD
1 0.9 4 1.5

LOAD 201 LOADTYPE NONE TITLE SLS DL+LL
REPEAT LOAD
1 1.0 2 1.0

LOAD 202 LOADTYPE NONE TITLE SLS DL+W+X
REPEAT LOAD
1 1.0 3 1.0

LOAD 203 LOADTYPE NONE TITLE SLS DL-W-X
REPEAT LOAD
1 1.0 4 1.0

PDELTA ANALYSIS PRINT STATICS CHECK

PARAMETER 1
CODE IS800 LSD
FYLD 250000 ALL
TRACK 2 ALL
CAN 1 ALL
KY 1.0 ALL
KZ 1.0 ALL
CHECK CODE ALL

FINISH
